data/rfi_simulation/der050/ckt7_Mon_rfi_03_der050.csv
fault_bus,fault_type,fault_R_ohm,Va_mag_pu,Va_ang_deg,Vb_mag_pu,Vb_ang_deg,Vc_mag_pu,Vc_ang_deg,Ia_mag_A,Ia_ang_deg,Ib_mag_A,Ib_ang_deg,Ic_mag_A,Ic_ang_deg
318412,SLG,0,0.148687,-111.5167,1.070963,-148.8306,1.04065,91.1072,1.1424,-76.1163,2.2272,-160.1938,2.6059,45.6595
318412,SLG,10,1.05514,-29.4603,1.055415,-149.3754,1.054833,90.6017,2.5118,-57.1894,2.5113,-177.1935,2.5114,62.8168
318412,SLG,20,1.055139,-29.4375,1.055417,-149.3757,1.054837,90.602,2.5117,-57.1819,2.5113,-177.1858,2.5114,62.8244
318412,SLG,30,1.055138,-29.4299,1.055418,-149.3759,1.054839,90.6021,2.5117,-57.1794,2.5113,-177.1832,2.5114,62.8269
318412,SLG,40,1.055138,-29.4261,1.055419,-149.3759,1.054839,90.6021,2.5117,-57.1781,2.5113,-177.1819,2.5114,62.8282
318412,LL,0,0.140278,-115.5022,0.137934,134.4847,1.051153,91.3547,1.431,-117.9261,0.6897,-125.7931,2.1164,59.5172
318412,LL,10,1.055131,-29.461,1.055417,-149.4211,1.054827,90.6024,2.5118,-57.2045,2.5114,-177.2086,2.5114,62.8014
318412,LL,20,1.055134,-29.4378,1.055418,-149.3986,1.054834,90.6024,2.5117,-57.1895,2.5113,-177.1933,2.5114,62.8167
318412,LL,30,1.055135,-29.4301,1.055419,-149.3911,1.054837,90.6023,2.5117,-57.1844,2.5113,-177.1882,2.5114,62.8218
318412,LL,40,1.055136,-29.4262,1.055419,-149.3873,1.054838,90.6023,2.5117,-57.1819,2.5113,-177.1857,2.5114,62.8243
318412,3LG,0,0.131678,-110.841,0.131689,129.1945,0.131646,9.1616,0.3387,-138.5446,0.3389,101.4544,0.3388,-18.5717
318412,3LG,10,1.055126,-29.4602,1.055408,-149.4217,1.054829,90.5567,2.5118,-57.22,2.5114,-177.2237,2.5114,62.7863
318412,3LG,20,1.055132,-29.4374,1.055414,-149.3989,1.054836,90.5795,2.5118,-57.1972,2.5113,-177.2009,2.5114,62.8091
318412,3LG,30,1.055134,-29.4298,1.055416,-149.3913,1.054838,90.5871,2.5117,-57.1896,2.5113,-177.1933,2.5114,62.8167
318412,3LG,40,1.055135,-29.426,1.055417,-149.3875,1.054839,90.5909,2.5117,-57.1858,2.5113,-177.1895,2.5114,62.8205
243937,SLG,0,0.035168,-78.3285,1.357519,177.2634,1.721175,105.4163,2.4991,-66.7339,2.5221,179.1951,2.7322,55.8267
243937,SLG,10,1.048603,-29.5804,1.057993,-149.6218,1.057499,90.8455,2.5128,-57.2292,2.5124,-177.2342,2.5124,62.7774
243937,SLG,20,1.051861,-29.4978,1.056712,-149.4994,1.056169,90.7246,2.5123,-57.2019,2.5118,-177.2062,2.5119,62.8046
243937,SLG,30,1.052951,-29.4701,1.056282,-149.4584,1.055726,90.6839,2.5121,-57.1928,2.5117,-177.1969,2.5117,62.8137
243937,SLG,40,1.053497,-29.4563,1.056067,-149.4379,1.055505,90.6636,2.512,-57.1882,2.5116,-177.1922,2.5116,62.8182
243937,LL,0,0.038188,-84.6122,0.02452,148.4771,1.493346,86.4438,1.7728,-120.222,1.6906,-122.8678,3.4624,58.4865
243937,LL,10,1.051266,-29.3372,1.051467,-149.7877,1.06003,90.5997,2.5138,-57.2843,2.5134,-177.2895,2.5134,62.721
243937,LL,20,1.053189,-29.3755,1.053436,-149.5826,1.057451,90.6012,2.5128,-57.2294,2.5124,-177.2339,2.5124,62.7763
243937,LL,30,1.053836,-29.3885,1.054096,-149.5139,1.056584,90.6016,2.5124,-57.2111,2.512,-177.2153,2.5121,62.7948
243937,LL,40,1.05416,-29.395,1.054427,-149.4795,1.05615,90.6018,2.5123,-57.2019,2.5119,-177.206,2.5119,62.8041
243937,3LG,0,0.032577,-94.3281,0.032574,145.6856,0.032574,25.6655,0.0838,-122.0421,0.0838,117.9536,0.0838,-2.0656
243937,3LG,10,1.053807,-29.5828,1.054086,-149.5446,1.053515,90.4338,2.5149,-57.3409,2.5145,-177.3446,2.5145,62.6654
243937,3LG,20,1.054473,-29.4988,1.054754,-149.4604,1.054179,90.518,2.5133,-57.2577,2.5129,-177.2614,2.513,62.7486
243937,3LG,30,1.054695,-29.4707,1.054976,-149.4323,1.0544,90.5461,2.5128,-57.2299,2.5124,-177.2336,2.5124,62.7764
243937,3LG,40,1.054806,-29.4567,1.055087,-149.4183,1.05451,90.5601,2.5125,-57.216,2.5121,-177.2198,2.5122,62.7903
157347,SLG,0,0.005463,-81.478,1.272943,-170.0967,1.420686,104.4884,39333.0817,-81.4771,2.5631,-172.187,2.8544,56.2559
157347,SLG,10,1.042815,-30.2866,1.063747,-149.5541,1.053579,91.0841,753.0224,-30.3737,2.5155,-177.3663,2.5155,62.6498
157347,SLG,20,1.048971,-29.8532,1.05962,-149.4643,1.054163,90.8442,379.8396,-30.0278,2.5134,-177.2728,2.5134,62.74
157347,SLG,30,1.051025,-29.7076,1.058228,-149.4347,1.054379,90.7638,254.4618,-29.9691,2.5127,-177.2414,2.5128,62.7705
157347,SLG,40,1.052053,-29.6345,1.057529,-149.42,1.05449,90.7235,191.5885,-29.9825,2.5124,-177.2256,2.5124,62.7858
157347,LL,0,0.008841,-73.8705,0.007899,131.6895,1.380141,88.3741,63651.7361,-73.8715,56868.1555,131.691,3.1389,60.6687
157347,LL,10,1.041574,-29.8009,1.051345,-150.4224,1.061866,90.8985,752.1186,-29.8902,759.1656,-150.5091,2.5197,62.4603
157347,LL,20,1.048295,-29.6103,1.053432,-149.9019,1.058355,90.7542,379.5915,-29.7871,381.4461,-150.0762,2.5155,62.6449
157347,LL,30,1.050562,-29.5456,1.054106,-149.7273,1.057183,90.7044,254.3475,-29.8094,255.2011,-149.9886,2.5141,62.707
157347,LL,40,1.051701,-29.5131,1.054439,-149.6397,1.056598,90.6792,191.5228,-29.8633,192.0176,-149.9875,2.5135,62.7381
157347,3LG,0,0.009425,-91.8292,0.009426,148.177,0.009425,28.1682,67854.8308,-91.8292,67859.9031,148.177,67856.2043,28.1682
157347,3LG,10,1.049777,-29.9825,1.050069,-149.9449,1.0495,90.0344,758.0277,-30.0714,758.2367,-150.0339,757.828,89.9455
157347,3LG,20,1.052463,-29.6993,1.052751,-149.6612,1.052177,90.3176,381.0936,-29.8756,381.1958,-149.8377,380.99,90.1413
157347,3LG,30,1.053356,-29.6046,1.053642,-149.5663,1.053066,90.4124,255.019,-29.8678,255.0864,-149.8299,254.949,90.149
157347,3LG,40,1.053802,-29.5571,1.054087,-149.5188,1.053511,90.4598,191.9017,-29.9069,191.9518,-149.8689,191.8488,90.1099
298162,SLG,0,0.648417,-22.2617,1.065938,-160.9848,1.251689,94.9987,2.6942,-57.7931,2.7143,-177.6345,2.7108,61.9194
298162,SLG,10,1.047664,-29.9606,1.060961,-149.5417,1.054749,90.9462,2.5135,-57.2942,2.513,-177.3009,2.513,62.7125
298162,SLG,20,1.051433,-29.6911,1.058228,-149.4576,1.054747,90.7753,2.5126,-57.2349,2.5121,-177.2401,2.5121,62.7715
298162,SLG,30,1.052675,-29.5997,1.0573,-149.4301,1.054768,90.7178,2.5123,-57.2149,2.5118,-177.2195,2.5119,62.7915
298162,SLG,40,1.053294,-29.5538,1.056833,-149.4165,1.054782,90.689,2.5121,-57.2048,2.5117,-177.2092,2.5118,62.8016
298162,LL,0,0.709512,-26.4444,0.59904,-148.681,1.190854,86.8427,2.3509,-68.7272,2.3497,-166.943,3.0772,62.1822
298162,LL,10,1.047651,-29.6121,1.053438,-150.0889,1.060274,90.7751,2.515,-57.4158,2.5146,-177.4223,2.5145,62.5882
298162,LL,20,1.051354,-29.517,1.054515,-149.7347,1.057554,90.6925,2.5133,-57.2959,2.5129,-177.3011,2.5129,62.7091
298162,LL,30,1.052607,-29.4837,1.054836,-149.6156,1.056649,90.6633,2.5128,-57.2556,2.5124,-177.2603,2.5124,62.7499
298162,LL,40,1.053236,-29.4667,1.05499,-149.5559,1.056196,90.6484,2.5125,-57.2353,2.5121,-177.2398,2.5121,62.7703
298162,3LG,0,0.662221,-30.2309,0.662217,-150.232,0.662222,89.7698,2.0593,-57.8628,2.0605,-177.8763,2.0594,62.102
298162,3LG,10,1.053097,-29.7837,1.053411,-149.7469,1.052835,90.2338,2.5165,-57.541,2.5161,-177.5448,2.5161,62.4653
298162,3LG,20,1.054138,-29.6,1.054437,-149.5623,1.053859,90.4173,2.5141,-57.3585,2.5137,-177.3622,2.5137,62.6478
298162,3LG,30,1.054476,-29.5384,1.05477,-149.5004,1.054191,90.4788,2.5133,-57.2973,2.5129,-177.301,2.5129,62.709
298162,3LG,40,1.054643,-29.5075,1.054934,-149.4694,1.054356,90.5096,2.5129,-57.2666,2.5125,-177.2704,2.5125,62.7397
165448,SLG,0,0.677946,-22.6534,1.062178,-160.1375,1.237413,94.6481,2.6819,-57.6904,2.6983,-177.5256,2.6968,62.0892
165448,SLG,10,1.047753,-29.9651,1.060977,-149.5367,1.054661,90.9445,2.5135,-57.2945,2.5129,-177.3013,2.5129,62.7121
165448,SLG,20,1.051484,-29.6936,1.058238,-149.4549,1.054699,90.7744,2.5126,-57.2351,2.5121,-177.2403,2.5121,62.7713
165448,SLG,30,1.052711,-29.6015,1.057307,-149.4283,1.054735,90.7173,2.5123,-57.215,2.5118,-177.2197,2.5119,62.7914
165448,SLG,40,1.053321,-29.5551,1.056839,-149.4151,1.054757,90.6886,2.5121,-57.2049,2.5117,-177.2093,2.5118,62.8015
165448,LL,0,0.737788,-26.699,0.628217,-148.5591,1.17981,86.9832,2.4093,-66.8368,2.4062,-168.6669,3.036,62.2943
165448,LL,10,1.047658,-29.6177,1.053541,-150.0888,1.060208,90.7782,2.5149,-57.4166,2.5146,-177.4231,2.5145,62.5873
165448,LL,20,1.051358,-29.5202,1.054576,-149.7346,1.057518,90.6943,2.5133,-57.2964,2.5129,-177.3016,2.5129,62.7086
165448,LL,30,1.052609,-29.4859,1.054879,-149.6156,1.056624,90.6645,2.5128,-57.2559,2.5124,-177.2606,2.5124,62.7495
165448,LL,40,1.053238,-29.4684,1.055022,-149.5559,1.056177,90.6493,2.5125,-57.2356,2.5121,-177.2401,2.5121,62.7701
165448,3LG,0,0.689978,-30.1839,0.689974,-150.185,0.689979,89.8168,2.1944,-57.8109,2.1957,-177.8246,2.1946,62.1537
165448,3LG,10,1.05312,-29.785,1.053438,-149.7483,1.05286,90.2326,2.5164,-57.5424,2.516,-177.5461,2.5161,62.464
165448,3LG,20,1.054152,-29.6007,1.054453,-149.563,1.053874,90.4166,2.514,-57.3593,2.5136,-177.363,2.5137,62.6471
165448,3LG,30,1.054486,-29.5389,1.054781,-149.5009,1.054202,90.4783,2.5133,-57.2978,2.5128,-177.3015,2.5129,62.7085
165448,3LG,40,1.054651,-29.5079,1.054943,-149.4698,1.054364,90.5092,2.5129,-57.267,2.5125,-177.2707,2.5125,62.7393
165449,SLG,0,0.834998,-25.1718,1.054218,-155.4582,1.157941,92.9812,2.6128,-57.2029,2.6159,-177.0809,2.6192,62.7982
165449,SLG,10,1.048673,-30.01,1.061134,-149.485,1.053752,90.9265,2.5133,-57.2984,2.5128,-177.3053,2.5128,62.7082
165449,SLG,20,1.052016,-29.7181,1.058323,-149.4269,1.054209,90.7646,2.5125,-57.2373,2.512,-177.2425,2.512,62.7691
165449,SLG,30,1.053082,-29.6182,1.057365,-149.4091,1.0544,90.7105,2.5122,-57.2165,2.5118,-177.2212,2.5118,62.7899
165449,SLG,40,1.053606,-29.5678,1.056882,-149.4005,1.054503,90.6834,2.5121,-57.206,2.5116,-177.2105,2.5117,62.8003
165449,LL,0,0.877258,-28.0642,0.794342,-148.2138,1.122583,88.2073,2.7383,-58.3752,2.7269,-176.3549,2.8156,62.8337
165449,LL,10,1.047704,-29.674,1.054609,-150.0879,1.059529,90.8101,2.5146,-57.4246,2.5142,-177.4311,2.5142,62.5792
165449,LL,20,1.051404,-29.5528,1.055199,-149.7328,1.057134,90.7122,2.5131,-57.3008,2.5127,-177.306,2.5127,62.7041
165449,LL,30,1.052646,-29.5087,1.055314,-149.614,1.056357,90.6769,2.5126,-57.2589,2.5122,-177.2636,2.5122,62.7464
165449,LL,40,1.053269,-29.4859,1.055356,-149.5545,1.055973,90.6587,2.5124,-57.2379,2.512,-177.2424,2.512,62.7677
165449,3LG,0,0.836754,-29.7749,0.836741,-149.7764,0.836756,90.2254,2.9088,-57.3915,2.9106,-177.4062,2.9091,62.5722
165449,3LG,10,1.053353,-29.7969,1.053708,-149.7611,1.053116,90.2218,2.5158,-57.5545,2.5154,-177.5582,2.5155,62.4518
165449,3LG,20,1.054293,-29.6072,1.054613,-149.5699,1.054025,90.4107,2.5137,-57.3659,2.5133,-177.3696,2.5133,62.6404
165449,3LG,30,1.054585,-29.5433,1.054893,-149.5056,1.054308,90.4743,2.513,-57.3024,2.5126,-177.3061,2.5127,62.704
165449,3LG,40,1.054727,-29.5113,1.055029,-149.4734,1.054445,90.5062,2.5127,-57.2705,2.5123,-177.2742,2.5123,62.7358
287274,SLG,0,0.885353,-27.5897,1.06603,-153.7804,1.124778,92.9344,2.5862,-57.3023,2.5874,-177.2491,2.5888,62.7012
287274,SLG,10,1.049097,-30.046,1.061324,-149.4544,1.053166,90.9203,2.5133,-57.3022,2.5128,-177.3093,2.5128,62.7043
287274,SLG,20,1.052281,-29.7388,1.058431,-149.4099,1.053884,90.7612,2.5124,-57.2396,2.512,-177.2449,2.512,62.7667
287274,SLG,30,1.053272,-29.6326,1.057439,-149.3974,1.054176,90.7082,2.5122,-57.2182,2.5117,-177.2229,2.5118,62.7882
287274,SLG,40,1.053753,-29.5788,1.056939,-149.3916,1.054332,90.6817,2.5121,-57.2073,2.5116,-177.2118,2.5117,62.799
287274,LL,0,0.93475,-29.6261,0.858129,-150.5792,1.10772,89.0582,2.7585,-57.9334,2.7408,-178.5392,2.7245,62.0883
287274,LL,10,1.047558,-29.7099,1.055219,-150.0986,1.059197,90.8336,2.5145,-57.4324,2.5141,-177.4388,2.5141,62.5713
287274,LL,20,1.051342,-29.5752,1.055576,-149.7382,1.056935,90.7257,2.513,-57.3056,2.5126,-177.3108,2.5126,62.6993
287274,LL,30,1.05261,-29.5247,1.055582,-149.6175,1.056216,90.6863,2.5125,-57.2623,2.5121,-177.267,2.5121,62.743
287274,LL,40,1.053243,-29.4983,1.055563,-149.5571,1.055864,90.6659,2.5123,-57.2405,2.5119,-177.245,2.5119,62.7651
287274,3LG,0,0.900963,-31.4881,0.900938,-151.4899,0.900961,88.5117,2.9411,-59.129,2.9405,-179.1337,2.9406,60.88
287274,3LG,10,1.053437,-29.8083,1.053814,-149.7735,1.053218,90.211,2.5156,-57.5662,2.5152,-177.5699,2.5153,62.4401
287274,3LG,20,1.054351,-29.6142,1.054684,-149.5774,1.054093,90.4041,2.5135,-57.373,2.5131,-177.3767,2.5132,62.6333
287274,3LG,30,1.054628,-29.5483,1.054945,-149.5109,1.054357,90.4696,2.5129,-57.3074,2.5125,-177.3111,2.5125,62.6989
287274,3LG,40,1.054761,-29.5151,1.055069,-149.4774,1.054484,90.5025,2.5126,-57.2744,2.5122,-177.2781,2.5122,62.7319
283954,SLG,0,0.909963,-27.8838,1.066917,-153.0624,1.112199,92.6993,2.5749,-57.2284,2.5753,-177.1816,2.5769,62.7873
283954,SLG,10,1.049617,-30.0739,1.061431,-149.4241,1.052628,90.9104,2.5132,-57.3048,2.5127,-177.3119,2.5127,62.7017
283954,SLG,20,1.0526,-29.7534,1.058476,-149.3932,1.053594,90.7551,2.5124,-57.241,2.5119,-177.2463,2.5119,62.7654
283954,SLG,30,1.053498,-29.6424,1.057467,-149.3859,1.053979,90.7038,2.5121,-57.2191,2.5117,-177.2239,2.5117,62.7872
283954,SLG,40,1.053928,-29.5861,1.056959,-149.3828,1.054183,90.6783,2.512,-57.208,2.5116,-177.2125,2.5116,62.7983
283954,LL,0,0.953094,-29.6095,0.887299,-150.3551,1.099734,89.3478,2.7163,-57.8007,2.7032,-178.2413,2.6917,62.2207
283954,LL,10,1.047521,-29.7424,1.05587,-150.1011,1.058827,90.8542,2.5143,-57.4374,2.5139,-177.4437,2.5139,62.5662
283954,LL,20,1.051362,-29.5947,1.055955,-149.7374,1.056707,90.7366,2.5128,-57.3083,2.5125,-177.3135,2.5124,62.6965
283954,LL,30,1.052633,-29.5383,1.055845,-149.6164,1.056054,90.6935,2.5124,-57.2642,2.512,-177.2689,2.5121,62.7411
283954,LL,40,1.053265,-29.5088,1.055764,-149.5561,1.055738,90.6714,2.5122,-57.2419,2.5118,-177.2464,2.5119,62.7637
283954,3LG,0,0.923815,-31.1451,0.923781,-151.1475,0.923818,88.8542,2.8678,-58.7959,2.8672,-178.8005,2.8673,61.2125
283954,3LG,10,1.053571,-29.8153,1.053974,-149.7809,1.053366,90.205,2.5153,-57.5732,2.5148,-177.5769,2.5149,62.4331
283954,3LG,20,1.054436,-29.6181,1.054782,-149.5815,1.054183,90.4007,2.5133,-57.3769,2.5129,-177.3806,2.513,62.6294
283954,3LG,30,1.054689,-29.551,1.055015,-149.5136,1.054421,90.4673,2.5127,-57.3101,2.5123,-177.3138,2.5124,62.6962
283954,3LG,40,1.054808,-29.5172,1.055123,-149.4795,1.054533,90.5008,2.5125,-57.2764,2.5121,-177.2801,2.5121,62.7299
283956,SLG,0,0.924578,-29.4748,1.075101,-152.5368,1.099886,92.8816,2.5661,-57.4526,2.5664,-177.4443,2.5666,62.5471
283956,SLG,10,1.049673,-30.0608,1.061318,-149.4245,1.052689,90.9053,2.5132,-57.3023,2.5127,-177.3093,2.5127,62.7042
283956,SLG,20,1.05261,-29.7499,1.058447,-149.3934,1.053612,90.7538,2.5124,-57.2403,2.5119,-177.2457,2.5119,62.766
283956,SLG,30,1.053502,-29.6408,1.057454,-149.386,1.053987,90.7032,2.5121,-57.2188,2.5117,-177.2235,2.5117,62.7875
283956,SLG,40,1.05393,-29.5852,1.056952,-149.3829,1.054187,90.6779,2.512,-57.2078,2.5116,-177.2123,2.5116,62.7985
283956,LL,0,0.968789,-30.2828,0.914483,-151.8554,1.098329,89.8149,2.6754,-58.3876,2.6637,-178.6611,2.6585,61.6952
283956,LL,10,1.047703,-29.7364,1.055766,-150.0873,1.058752,90.8475,2.5143,-57.433,2.5139,-177.4394,2.5139,62.5706
283956,LL,20,1.051407,-29.5928,1.055922,-149.734,1.056692,90.7347,2.5128,-57.3072,2.5125,-177.3123,2.5124,62.6977
283956,LL,30,1.052653,-29.5374,1.055829,-149.6149,1.056048,90.6927,2.5124,-57.2636,2.512,-177.2683,2.5121,62.7417
283956,LL,40,1.053276,-29.5082,1.055755,-149.5553,1.055735,90.6709,2.5122,-57.2416,2.5118,-177.2461,2.5119,62.764
283956,3LG,0,0.949076,-31.988,0.949087,-151.9915,0.949093,88.0119,2.7911,-59.6544,2.7905,-179.6588,2.7906,60.3535
283956,3LG,10,1.05357,-29.8098,1.05397,-149.7753,1.053363,90.2104,2.5153,-57.5677,2.5149,-177.5714,2.5149,62.4386
283956,3LG,20,1.054435,-29.6167,1.05478,-149.58,1.054181,90.4021,2.5133,-57.3755,2.5129,-177.3792,2.513,62.6308
283956,3LG,30,1.054688,-29.5503,1.055014,-149.513,1.05442,90.4679,2.5127,-57.3094,2.5123,-177.3131,2.5124,62.6969
283956,3LG,40,1.054808,-29.5168,1.055123,-149.4791,1.054532,90.5012,2.5125,-57.276,2.5121,-177.2797,2.5121,62.7303
189963,SLG,0,0.942104,-29.1877,1.077402,-151.9857,1.089699,92.7537,2.5578,-57.2437,2.5575,-177.2197,2.5586,62.7733
189963,SLG,10,1.050088,-30.2238,1.062522,-149.3486,1.050878,90.9247,2.5134,-57.3244,2.5129,-177.3322,2.5129,62.6821
189963,SLG,20,1.053056,-29.8345,1.059015,-149.3488,1.052618,90.7585,2.5124,-57.252,2.5119,-177.2577,2.5119,62.7543
189963,SLG,30,1.053856,-29.6975,1.057821,-149.3548,1.053306,90.705,2.5121,-57.2266,2.5117,-177.2316,2.5117,62.7797
189963,SLG,40,1.054217,-29.6279,1.057222,-149.3589,1.05367,90.6788,2.512,-57.2137,2.5116,-177.2184,2.5116,62.7925
189963,LL,0,0.992008,-29.9478,0.935247,-151.542,1.091712,89.9473,2.6392,-58.1759,2.6308,-178.3446,2.6283,61.8982
189963,LL,10,1.046104,-29.8527,1.057525,-150.1975,1.058445,90.9455,2.5144,-57.4755,2.5141,-177.482,2.514,62.5276
189963,LL,20,1.050779,-29.6664,1.057004,-149.7804,1.056343,90.7857,2.5128,-57.3301,2.5124,-177.3354,2.5124,62.6745
189963,LL,30,1.052285,-29.5897,1.05659,-149.6435,1.055769,90.7267,2.5123,-57.2792,2.512,-177.284,2.512,62.7259
189963,LL,40,1.053021,-29.5486,1.056339,-149.5757,1.055509,90.6964,2.5122,-57.2533,2.5118,-177.2579,2.5118,62.7521
189963,3LG,0,0.971374,-31.6836,0.971333,-151.6882,0.971434,88.3143,2.727,-59.3687,2.7264,-179.3729,2.7265,60.6388
189963,3LG,10,1.053561,-29.8706,1.054046,-149.8392,1.053423,90.1531,2.5152,-57.6284,2.5148,-177.6321,2.5148,62.3779
189963,3LG,20,1.054489,-29.6502,1.054882,-149.6146,1.054264,90.3708,2.5131,-57.4087,2.5127,-177.4124,2.5128,62.5976
189963,3LG,30,1.054739,-29.5734,1.055097,-149.5366,1.054488,90.4465,2.5126,-57.3322,2.5122,-177.3359,2.5122,62.6741
189963,3LG,40,1.054852,-29.5343,1.055191,-149.497,1.054588,90.4848,2.5123,-57.2933,2.5119,-177.297,2.512,62.713
181977,SLG,0,0.955165,-29.5578,1.078452,-151.6159,1.082968,92.6468,2.5517,-57.2705,2.5513,-177.255,2.5521,62.7452
181977,SLG,10,1.050421,-30.2379,1.06257,-149.3276,1.050516,90.9164,2.5134,-57.3249,2.5129,-177.3327,2.5129,62.6816
181977,SLG,20,1.053295,-29.844,1.059036,-149.3361,1.052403,90.7532,2.5123,-57.2527,2.5119,-177.2584,2.5119,62.7536
181977,SLG,30,1.054034,-29.7043,1.057833,-149.3458,1.053156,90.7011,2.5121,-57.2272,2.5116,-177.2322,2.5117,62.7791
181977,SLG,40,1.054358,-29.6331,1.05723,-149.352,1.053555,90.6757,2.512,-57.2142,2.5115,-177.2189,2.5116,62.7921
181977,LL,0,1.000666,-29.9806,0.952505,-151.6143,1.088464,90.1384,2.618,-58.163,2.6115,-178.2842,2.61,61.8998
181977,LL,10,1.046059,-29.8676,1.05792,-150.1974,1.058211,90.9589,2.5143,-57.4761,2.514,-177.4825,2.5139,62.527
181977,LL,20,1.050788,-29.6794,1.057282,-149.779,1.056171,90.7937,2.5127,-57.3314,2.5123,-177.3366,2.5123,62.6732
181977,LL,30,1.052304,-29.5996,1.056791,-149.642,1.05564,90.7322,2.5123,-57.2803,2.5119,-177.2851,2.5119,62.7248
181977,LL,40,1.053041,-29.5565,1.056495,-149.5744,1.055406,90.7005,2.5121,-57.2542,2.5117,-177.2588,2.5117,62.7512
181977,3LG,0,0.98455,-31.5813,0.984537,-151.5868,0.984649,88.4171,2.6905,-59.2785,2.69,-179.2827,2.69,60.7287
181977,3LG,10,1.053649,-29.8713,1.054149,-149.8399,1.053516,90.1531,2.5149,-57.6291,2.5145,-177.6328,2.5146,62.3773
181977,3LG,20,1.054552,-29.6521,1.054954,-149.6163,1.054327,90.3694,2.513,-57.4105,2.5126,-177.4142,2.5126,62.5958
181977,3LG,30,1.054787,-29.5749,1.05515,-149.538,1.054535,90.4452,2.5125,-57.3337,2.5121,-177.3374,2.5121,62.6726
181977,3LG,40,1.05489,-29.5356,1.055233,-149.4982,1.054626,90.4838,2.5122,-57.2946,2.5118,-177.2983,2.5119,62.7117
181924,SLG,0,0.95887,-29.0164,1.076974,-151.6029,1.083482,92.5683,2.5494,-57.1327,2.5488,-177.1073,2.5501,62.8912
181924,SLG,10,1.051272,-30.3172,1.063019,-149.269,1.049349,90.9085,2.5133,-57.3344,2.5128,-177.3425,2.5128,62.672
181924,SLG,20,1.053899,-29.878,1.059162,-149.3035,1.051818,90.7429,2.5122,-57.2567,2.5118,-177.2625,2.5118,62.7495
181924,SLG,30,1.054473,-29.7253,1.057892,-149.3235,1.05277,90.6928,2.512,-57.2296,2.5115,-177.2346,2.5116,62.7766
181924,SLG,40,1.054701,-29.6482,1.057265,-149.3351,1.053268,90.6689,2.5119,-57.2158,2.5115,-177.2206,2.5115,62.7904
181924,LL,0,1.001055,-29.8449,0.952311,-150.9508,1.08659,90.0989,2.6196,-57.9147,2.6131,-178.0547,2.6108,62.1375
181924,LL,10,1.045445,-29.9388,1.059428,-150.2331,1.057696,91.0178,2.514,-57.4923,2.5137,-177.4987,2.5137,62.5106
181924,LL,20,1.050717,-29.7213,1.058093,-149.7832,1.055747,90.8189,2.5124,-57.3385,2.5121,-177.3437,2.512,62.666
181924,LL,30,1.052317,-29.6282,1.05733,-149.6417,1.055325,90.7475,2.5121,-57.2847,2.5117,-177.2894,2.5117,62.7204
181924,LL,40,1.053073,-29.578,1.056897,-149.573,1.055159,90.7114,2.512,-57.2574,2.5116,-177.2619,2.5116,62.748
181924,3LG,0,0.982123,-31.2008,0.982107,-151.2055,0.982213,88.7983,2.6971,-58.8952,2.6966,-178.8994,2.6967,61.112
181924,3LG,10,1.053897,-29.8928,1.054437,-149.8603,1.053763,90.134,2.5143,-57.6498,2.5139,-177.6535,2.514,62.3565
181924,3LG,20,1.054721,-29.6621,1.055138,-149.6253,1.054487,90.3606,2.5126,-57.42,2.5122,-177.4237,2.5122,62.5863
181924,3LG,30,1.054909,-29.5813,1.055282,-149.5436,1.054649,90.4396,2.5122,-57.3398,2.5118,-177.3435,2.5118,62.6665
181924,3LG,40,1.054985,-29.5403,1.055335,-149.5023,1.054715,90.4797,2.512,-57.299,2.5116,-177.3027,2.5117,62.7073
181993,SLG,0,0.96473,-29.0468,1.076775,-151.4647,1.081255,92.4984,2.5465,-57.1201,2.5459,-177.0966,2.5471,62.904
181993,SLG,10,1.051557,-30.3416,1.063147,-149.2475,1.048939,90.9038,2.5133,-57.337,2.5128,-177.3451,2.5128,62.6695
181993,SLG,20,1.054134,-29.8895,1.059192,-149.2908,1.051599,90.7379,2.5122,-57.2579,2.5117,-177.2638,2.5117,62.7483
181993,SLG,30,1.05465,-29.7326,1.057902,-149.3147,1.052623,90.6888,2.512,-57.2303,2.5115,-177.2355,2.5115,62.7758
181993,SLG,40,1.05484,-29.6534,1.057268,-149.3283,1.053158,90.6657,2.5119,-57.2164,2.5114,-177.2212,2.5115,62.7898
181993,LL,0,1.003566,-29.8124,0.958859,-150.8174,1.085044,90.1608,2.6126,-57.8445,2.6069,-177.9736,2.6047,62.2005
181993,LL,10,1.045233,-29.9594,1.059895,-150.2439,1.057513,91.0373,2.514,-57.4963,2.5137,-177.5026,2.5136,62.5065
181993,LL,20,1.0507,-29.7363,1.058387,-149.7836,1.055577,90.8279,2.5123,-57.3407,2.512,-177.3459,2.512,62.6637
181993,LL,30,1.052331,-29.6388,1.057532,-149.6407,1.055195,90.753,2.512,-57.2861,2.5116,-177.2909,2.5116,62.7189
181993,LL,40,1.053094,-29.5862,1.057049,-149.5718,1.055056,90.7153,2.5119,-57.2584,2.5115,-177.263,2.5115,62.7469
181993,3LG,0,0.986164,-31.0499,0.986164,-151.054,0.986262,88.9501,2.6861,-58.7477,2.6855,-178.7519,2.6856,61.2595
181993,3LG,10,1.053973,-29.8984,1.054523,-149.8652,1.053834,90.1292,2.5141,-57.655,2.5137,-177.6587,2.5138,62.3514
181993,3LG,20,1.054783,-29.6651,1.055203,-149.6279,1.054542,90.3579,2.5124,-57.4229,2.512,-177.4265,2.5121,62.5835
181993,3LG,30,1.054957,-29.5834,1.05533,-149.5454,1.054692,90.4377,2.5121,-57.3417,2.5117,-177.3454,2.5117,62.6646
181993,3LG,40,1.055023,-29.5418,1.055374,-149.5036,1.054748,90.4783,2.5119,-57.3005,2.5115,-177.3042,2.5116,62.7058
181994,SLG,0,0.97042,-29.1446,1.076789,-151.3154,1.078741,92.4332,2.5439,-57.1226,2.5432,-177.102,2.5443,62.9007
181994,SLG,10,1.051747,-30.3654,1.063292,-149.2294,1.048575,90.9016,2.5134,-57.3396,2.5128,-177.3478,2.5128,62.6669
181994,SLG,20,1.054329,-29.9016,1.059234,-149.2793,1.051395,90.7342,2.5122,-57.2594,2.5117,-177.2653,2.5117,62.7468
181994,SLG,30,1.054803,-29.7404,1.057922,-149.3066,1.052484,90.6857,2.5119,-57.2313,2.5115,-177.2365,2.5115,62.7748
181994,SLG,40,1.054964,-29.6592,1.057279,-149.3221,1.053053,90.6631,2.5119,-57.2171,2.5114,-177.2219,2.5115,62.789
181994,LL,0,1.006536,-29.7782,0.965979,-150.7652,1.083634,90.2301,2.6047,-57.7989,2.5996,-177.9132,2.5977,62.2405
181994,LL,10,1.04499,-29.976,1.060265,-150.2579,1.057399,91.0552,2.514,-57.5006,2.5137,-177.5069,2.5136,62.5022
181994,LL,20,1.050659,-29.7504,1.058653,-149.7861,1.055435,90.8367,2.5123,-57.3433,2.5119,-177.3485,2.5119,62.6611
181994,LL,30,1.05233,-29.6492,1.05772,-149.6411,1.055082,90.7586,2.512,-57.2879,2.5116,-177.2927,2.5116,62.7171
181994,LL,40,1.053104,-29.5943,1.057193,-149.5716,1.054965,90.7192,2.5118,-57.2598,2.5115,-177.2643,2.5115,62.7455
181994,3LG,0,0.991118,-30.9361,0.991145,-150.9392,0.991226,89.0653,2.6726,-58.638,2.6721,-178.6421,2.6722,61.3692
181994,3LG,10,1.054022,-29.9046,1.054582,-149.8709,1.053878,90.1238,2.514,-57.6608,2.5136,-177.6645,2.5137,62.3455
181994,3LG,20,1.054835,-29.6689,1.055259,-149.6312,1.054589,90.3545,2.5123,-57.4264,2.5119,-177.4301,2.512,62.5799
181994,3LG,30,1.054999,-29.586,1.055374,-149.5477,1.054729,90.4353,2.512,-57.3442,2.5116,-177.3479,2.5116,62.6621
181994,3LG,40,1.055058,-29.5438,1.055409,-149.5053,1.054779,90.4764,2.5119,-57.3024,2.5114,-177.3061,2.5115,62.7039
181891,SLG,0,0.978152,-29.5542,1.077265,-151.0747,1.074445,92.3515,2.5407,-57.1954,2.54,-177.1831,2.5408,62.8234
181891,SLG,10,1.051473,-30.3354,1.063169,-149.2447,1.048881,90.9034,2.5134,-57.3341,2.5129,-177.3422,2.5129,62.6724
181891,SLG,20,1.054199,-29.8935,1.059225,-149.2852,1.051493,90.7367,2.5122,-57.2578,2.5117,-177.2636,2.5117,62.7484
181891,SLG,30,1.054726,-29.7364,1.057925,-149.3099,1.052536,90.6876,2.512,-57.2305,2.5115,-177.2356,2.5115,62.7757
181891,SLG,40,1.05491,-29.6567,1.057285,-149.3244,1.053086,90.6645,2.5119,-57.2166,2.5114,-177.2214,2.5115,62.7896
181891,LL,0,1.011239,-29.8701,0.977093,-150.9931,1.08184,90.3626,2.5921,-57.8692,2.5879,-177.9567,2.5866,62.1673
181891,LL,10,1.045271,-29.9416,1.059677,-150.243,1.057579,91.0345,2.5141,-57.491,2.5138,-177.4973,2.5137,62.5118
181891,LL,20,1.050672,-29.7381,1.058472,-149.7851,1.055538,90.8319,2.5123,-57.3404,2.512,-177.3456,2.5119,62.664
181891,LL,30,1.052321,-29.6426,1.057629,-149.6413,1.055146,90.7565,2.512,-57.2864,2.5116,-177.2911,2.5116,62.7186
181891,LL,40,1.053092,-29.5899,1.057137,-149.5719,1.055009,90.7181,2.5119,-57.2588,2.5115,-177.2633,2.5115,62.7465
181891,3LG,0,0.999671,-30.9856,0.999756,-150.9877,0.999798,89.0177,2.6498,-58.6954,2.6493,-178.6995,2.6494,61.3116
181891,3LG,10,1.053974,-29.8931,1.054512,-149.8598,1.053829,90.1338,2.5142,-57.6499,2.5137,-177.6535,2.5138,62.3565
181891,3LG,20,1.054813,-29.6651,1.05523,-149.6276,1.054569,90.3579,2.5124,-57.4228,2.5119,-177.4265,2.512,62.5835
181891,3LG,30,1.054985,-29.5839,1.055357,-149.5457,1.054718,90.4372,2.512,-57.3422,2.5116,-177.3459,2.5117,62.6641
181891,3LG,40,1.055048,-29.5424,1.055398,-149.504,1.054772,90.4776,2.5119,-57.3011,2.5115,-177.3048,2.5115,62.7052
255335,SLG,0,0.978729,-29.4296,1.077705,-151.0648,1.074117,92.3658,2.5401,-57.1505,2.5394,-177.1353,2.5403,62.8704
255335,SLG,10,1.051868,-30.4083,1.063619,-149.2026,1.04798,90.9037,2.5135,-57.3441,2.513,-177.3525,2.5129,62.6624
255335,SLG,20,1.054577,-29.9265,1.059363,-149.2607,1.051031,90.7309,2.5122,-57.2626,2.5117,-177.2685,2.5117,62.7436
255335,SLG,30,1.055015,-29.7572,1.057994,-149.293,1.052231,90.6824,2.5119,-57.2335,2.5115,-177.2387,2.5115,62.7726
255335,SLG,40,1.05514,-29.6718,1.057327,-149.3116,1.05286,90.6601,2.5118,-57.2188,2.5114,-177.2237,2.5114,62.7873
255335,LL,0,1.012671,-29.7614,0.977881,-150.8756,1.081749,90.3578,2.5902,-57.7983,2.5862,-177.884,2.5848,62.2361
255335,LL,10,1.044426,-29.9981,1.060739,-150.2903,1.057338,91.0866,2.5141,-57.5082,2.5138,-177.5144,2.5137,62.4944
255335,LL,20,1.050485,-29.7749,1.05908,-149.7963,1.055244,90.8542,2.5122,-57.3491,2.5119,-177.3543,2.5118,62.6552
255335,LL,30,1.052259,-29.668,1.058033,-149.6459,1.054918,90.7698,2.5119,-57.292,2.5115,-177.2968,2.5115,62.7129
255335,LL,40,1.05307,-29.6092,1.057436,-149.5744,1.054828,90.7274,2.5118,-57.263,2.5114,-177.2675,2.5114,62.7423
255335,3LG,0,1.00074,-30.8832,1.00084,-150.8847,1.000877,89.1211,2.647,-58.5936,2.6465,-178.5976,2.6465,61.4134
255335,3LG,10,1.054027,-29.9164,1.054608,-149.8819,1.053881,90.1134,2.514,-57.6719,2.5136,-177.6756,2.5137,62.3344
255335,3LG,20,1.054887,-29.6774,1.05532,-149.6388,1.054632,90.3469,2.5122,-57.4344,2.5118,-177.4381,2.5118,62.5719
255335,3LG,30,1.055047,-29.5922,1.055427,-149.5532,1.05477,90.4297,2.5119,-57.35,2.5114,-177.3537,2.5115,62.6563
255335,3LG,40,1.055099,-29.5486,1.055454,-149.5096,1.054814,90.472,2.5118,-57.307,2.5113,-177.3107,2.5114,62.6994
182030,SLG,0,0.980585,-29.5625,1.07808,-150.9929,1.072731,92.3521,2.5394,-57.1723,2.5387,-177.1593,2.5396,62.8474
182030,SLG,10,1.051828,-30.3995,1.063563,-149.2056,1.048056,90.9025,2.5135,-57.3426,2.513,-177.3509,2.5129,62.6639
182030,SLG,20,1.054557,-29.9244,1.059352,-149.2616,1.051052,90.7309,2.5122,-57.2622,2.5117,-177.2682,2.5117,62.744
182030,SLG,30,1.055005,-29.7563,1.05799,-149.2935,1.05224,90.6824,2.5119,-57.2334,2.5115,-177.2386,2.5115,62.7728
182030,SLG,40,1.055134,-29.6713,1.057325,-149.3118,1.052865,90.6601,2.5118,-57.2187,2.5114,-177.2236,2.5114,62.7874
182030,LL,0,1.01401,-29.7546,0.981184,-150.9627,1.081446,90.3994,2.5863,-57.8135,2.5826,-177.8911,2.5814,62.2195
182030,LL,10,1.044518,-29.9914,1.060605,-150.2834,1.057343,91.081,2.5141,-57.5055,2.5138,-177.5118,2.5138,62.4971
182030,LL,20,1.050497,-29.7727,1.05904,-149.7953,1.055255,90.8529,2.5122,-57.3484,2.5119,-177.3536,2.5119,62.6559
182030,LL,30,1.052262,-29.667,1.058015,-149.6456,1.054924,90.7693,2.5119,-57.2917,2.5115,-177.2965,2.5115,62.7132
182030,LL,40,1.053071,-29.6086,1.057426,-149.5742,1.054832,90.7272,2.5118,-57.2628,2.5114,-177.2673,2.5114,62.7425
182030,3LG,0,1.003513,-30.8895,1.003638,-150.8908,1.003661,89.1155,2.6396,-58.6026,2.6392,-178.6066,2.6392,61.4044
182030,3LG,10,1.054006,-29.9131,1.054583,-149.8786,1.053859,90.1165,2.5141,-57.6686,2.5136,-177.6723,2.5137,62.3377
182030,3LG,20,1.054879,-29.6766,1.055311,-149.638,1.054624,90.3477,2.5122,-57.4336,2.5118,-177.4373,2.5118,62.5727
182030,3LG,30,1.055043,-29.5918,1.055423,-149.5528,1.054766,90.4301,2.5119,-57.3497,2.5115,-177.3534,2.5115,62.6566
182030,3LG,40,1.055097,-29.5484,1.055451,-149.5094,1.054812,90.4722,2.5118,-57.3067,2.5114,-177.3104,2.5114,62.6996
182153,SLG,0,0.990676,-29.9588,1.080091,-150.6665,1.066354,92.3025,2.5348,-57.2066,2.5341,-177.1994,2.5347,62.8103
182153,SLG,10,1.051032,-30.534,1.065018,-149.1657,1.04677,90.9667,2.5141,-57.352,2.5135,-177.3609,2.5135,62.6546
182153,SLG,20,1.054798,-30.0068,1.059941,-149.2197,1.050086,90.7378,2.5123,-57.2732,2.5118,-177.2795,2.5118,62.733
182153,SLG,30,1.055299,-29.8131,1.058351,-149.2618,1.051554,90.6836,2.512,-57.2412,2.5115,-177.2467,2.5115,62.7649
182153,SLG,40,1.055408,-29.7142,1.057581,-149.2868,1.052337,90.6597,2.5118,-57.2248,2.5114,-177.2298,2.5114,62.7813
182153,LL,0,1.023742,-29.7967,0.996008,-151.1958,1.079028,90.5601,2.5671,-57.8662,2.5645,-177.9121,2.564,62.1612
182153,LL,10,1.04292,-29.999,1.060944,-150.4094,1.057944,91.15,2.5147,-57.5266,2.5144,-177.5328,2.5143,62.4756
182153,LL,20,1.049584,-29.8338,1.060013,-149.851,1.055052,90.908,2.5124,-57.3688,2.512,-177.3741,2.512,62.6353
182153,LL,30,1.051769,-29.717,1.058765,-149.677,1.054666,90.8058,2.5119,-57.3067,2.5115,-177.3115,2.5115,62.6981
182153,LL,40,1.052756,-29.6493,1.058018,-149.5955,1.054593,90.7541,2.5118,-57.2744,2.5114,-177.279,2.5114,62.7307
182153,3LG,0,1.016691,-30.9409,1.016993,-150.9387,1.016884,89.0704,2.6055,-58.6656,2.605,-178.6696,2.6051,61.3412
182153,3LG,10,1.053801,-29.9542,1.054445,-149.92,1.053692,90.0786,2.5145,-57.7085,2.514,-177.7122,2.5141,62.2978
182153,3LG,20,1.054869,-29.7067,1.055338,-149.6669,1.054612,90.3201,2.5122,-57.4625,2.5118,-177.4662,2.5118,62.5438
182153,3LG,30,1.055068,-29.614,1.05547,-149.5739,1.054783,90.4095,2.5118,-57.371,2.5114,-177.3747,2.5115,62.6353
182153,3LG,40,1.055129,-29.5658,1.055499,-149.5259,1.054836,90.456,2.5117,-57.3235,2.5113,-177.3272,2.5113,62.6828
182158,SLG,0,0.994616,-30.0191,1.080035,-150.5625,1.064643,92.2531,2.533,-57.2086,2.5323,-177.2028,2.5329,62.8078
182158,SLG,10,1.050685,-30.5771,1.065559,-149.1534,1.046338,90.9933,2.5143,-57.3531,2.5137,-177.3622,2.5137,62.6536
182158,SLG,20,1.054917,-30.0346,1.06014,-149.2033,1.049725,90.7389,2.5123,-57.2766,2.5119,-177.283,2.5119,62.7296
182158,SLG,30,1.05544,-29.8322,1.058465,-149.2493,1.051296,90.6828,2.512,-57.2437,2.5115,-177.2492,2.5115,62.7624
182158,SLG,40,1.055538,-29.7286,1.057658,-149.2768,1.052138,90.6584,2.5118,-57.2267,2.5114,-177.2317,2.5114,62.7794
182158,LL,0,1.026105,-29.789,1.000721,-151.1632,1.077941,90.6008,2.5619,-57.8436,2.5597,-177.8838,2.5592,62.1806
182158,LL,10,1.043022,-29.9658,1.060586,-150.4404,1.058266,91.1502,2.5146,-57.5257,2.5144,-177.5318,2.5143,62.4761
182158,LL,20,1.049258,-29.8537,1.060384,-149.8697,1.054972,90.9285,2.5124,-57.3749,2.5121,-177.3802,2.512,62.6292
182158,LL,30,1.051604,-29.7346,1.059061,-149.6866,1.054553,90.8193,2.5119,-57.3112,2.5115,-177.3161,2.5115,62.6935
182158,LL,40,1.052658,-29.6638,1.058253,-149.6014,1.054487,90.7638,2.5117,-57.278,2.5114,-177.2826,2.5114,62.7271
182158,3LG,0,1.020094,-30.8847,1.020462,-150.8801,1.020289,89.1294,2.5968,-58.6117,2.5963,-178.6156,2.5964,61.395
182158,3LG,10,1.053748,-29.9649,1.05441,-149.9311,1.053652,90.0686,2.5146,-57.719,2.5141,-177.7227,2.5142,62.2873
182158,3LG,20,1.054882,-29.7155,1.055363,-149.6754,1.054623,90.312,2.5122,-57.4709,2.5117,-177.4746,2.5118,62.5354
182158,3LG,30,1.055091,-29.6206,1.055499,-149.5802,1.054802,90.4034,2.5117,-57.3774,2.5113,-177.3811,2.5114,62.629
182158,3LG,40,1.055152,-29.5711,1.055526,-149.5308,1.054855,90.4511,2.5116,-57.3285,2.5112,-177.3322,2.5113,62.6778
182162,SLG,0,0.998048,-30.0516,1.079837,-150.4773,1.06331,92.2055,2.5315,-57.2074,2.5308,-177.2025,2.5313,62.8086
182162,SLG,10,1.050292,-30.6194,1.066122,-149.1423,1.045916,91.0218,2.5145,-57.3537,2.5139,-177.363,2.5139,62.653
182162,SLG,20,1.055033,-30.0626,1.060344,-149.1868,1.049357,90.7403,2.5124,-57.2799,2.5119,-177.2864,2.5119,62.7263
182162,SLG,30,1.055585,-29.8514,1.058581,-149.2365,1.051033,90.6818,2.512,-57.2461,2.5115,-177.2517,2.5115,62.76
182162,SLG,40,1.055673,-29.743,1.057735,-149.2665,1.051936,90.6569,2.5118,-57.2285,2.5114,-177.2336,2.5114,62.7776
182162,LL,0,1.028053,-29.7821,1.004604,-151.1148,1.076944,90.6312,2.5578,-57.8188,2.5558,-177.8551,2.5554,62.2027
182162,LL,10,1.043139,-29.9336,1.060217,-150.4697,1.058581,91.15,2.5146,-57.5247,2.5143,-177.5308,2.5142,62.4767
182162,LL,20,1.048913,-29.8728,1.060758,-149.8894,1.054904,90.9496,2.5124,-57.3807,2.5121,-177.386,2.5121,62.6233
182162,LL,30,1.051432,-29.752,1.059367,-149.6964,1.054441,90.8332,2.5119,-57.3156,2.5115,-177.3205,2.5115,62.689
182162,LL,40,1.052558,-29.6784,1.058496,-149.6073,1.054379,90.7739,2.5117,-57.2815,2.5113,-177.2861,2.5114,62.7236
182162,3LG,0,1.022798,-30.8281,1.023219,-150.821,1.022987,89.1885,2.5899,-58.5567,2.5894,-178.5606,2.5895,61.45
182162,3LG,10,1.053697,-29.9749,1.054376,-149.9416,1.053617,90.0592,2.5146,-57.729,2.5142,-177.7327,2.5143,62.2773
182162,3LG,20,1.054896,-29.724,1.055391,-149.6835,1.054637,90.3043,2.5121,-57.4791,2.5117,-177.4828,2.5118,62.5272
182162,3LG,30,1.055115,-29.6271,1.055531,-149.5862,1.054823,90.3975,2.5117,-57.3835,2.5113,-177.3872,2.5113,62.6228
182162,3LG,40,1.055177,-29.5762,1.055556,-149.5356,1.054876,90.4464,2.5116,-57.3334,2.5112,-177.3371,2.5112,62.6729
